data_image0
_chemical_formula_structural       Ce4O8Ce4O8Ce4O8Ce4O8Ce4O8Ce4O8
_chemical_formula_sum              "Ce24 O48"
_cell_length_a       7.65259
_cell_length_b       7.65259
_cell_length_c       37.9639
_cell_angle_alpha    90
_cell_angle_beta     90
_cell_angle_gamma    60

_space_group_name_H-M_alt    "P 1"
_space_group_IT_number       1

loop_
  _space_group_symop_operation_xyz
  'x, y, z'

loop_
  _atom_site_type_symbol
  _atom_site_label
  _atom_site_symmetry_multiplicity
  _atom_site_fract_x
  _atom_site_fract_y
  _atom_site_fract_z
  _atom_site_occupancy
  Ce  Ce1       1.0  0.00000  0.00000  0.26341  1.0000
  Ce  Ce2       1.0  0.00000  0.50000  0.26341  1.0000
  Ce  Ce3       1.0  0.50000  0.00000  0.26341  1.0000
  Ce  Ce4       1.0  0.50000  0.50000  0.26341  1.0000
  O   O1        1.0  0.00000  0.00000  0.32513  1.0000
  O   O2        1.0  0.66667  0.66667  0.28398  1.0000
  O   O3        1.0  0.50000  0.50000  0.32513  1.0000
  O   O4        1.0  0.16667  0.16667  0.28398  1.0000
  O   O5        1.0  0.50000  0.00000  0.32513  1.0000
  O   O6        1.0  0.16667  0.66667  0.28398  1.0000
  O   O7        1.0  0.00000  0.50000  0.32513  1.0000
  O   O8        1.0  0.66667  0.16667  0.28398  1.0000
  Ce  Ce5       1.0  0.66667  0.66667  0.34570  1.0000
  Ce  Ce6       1.0  0.66667  0.16667  0.34570  1.0000
  Ce  Ce7       1.0  0.16667  0.66667  0.34570  1.0000
  Ce  Ce8       1.0  0.16667  0.16667  0.34570  1.0000
  O   O9        1.0  0.66667  0.66667  0.40742  1.0000
  O   O10       1.0  0.33333  0.33333  0.36627  1.0000
  O   O11       1.0  0.16667  0.16667  0.40742  1.0000
  O   O12       1.0  0.83333  0.83333  0.36627  1.0000
  O   O13       1.0  0.16667  0.66667  0.40742  1.0000
  O   O14       1.0  0.83333  0.33333  0.36627  1.0000
  O   O15       1.0  0.66667  0.16667  0.40742  1.0000
  O   O16       1.0  0.33333  0.83333  0.36627  1.0000
  Ce  Ce9       1.0  0.33333  0.33333  0.42799  1.0000
  Ce  Ce10      1.0  0.33333  0.83333  0.42799  1.0000
  Ce  Ce11      1.0  0.83333  0.33333  0.42799  1.0000
  Ce  Ce12      1.0  0.83333  0.83333  0.42799  1.0000
  O   O17       1.0  0.33333  0.33333  0.48971  1.0000
  O   O18       1.0  0.00000  0.00000  0.44857  1.0000
  O   O19       1.0  0.83333  0.83333  0.48971  1.0000
  O   O20       1.0  0.50000  0.50000  0.44857  1.0000
  O   O21       1.0  0.83333  0.33333  0.48971  1.0000
  O   O22       1.0  0.50000  0.00000  0.44857  1.0000
  O   O23       1.0  0.33333  0.83333  0.48971  1.0000
  O   O24       1.0  1.00000  0.50000  0.44857  1.0000
  Ce  Ce13      1.0  1.00000  0.00000  0.51029  1.0000
  Ce  Ce14      1.0  1.00000  0.50000  0.51029  1.0000
  Ce  Ce15      1.0  0.50000  0.00000  0.51029  1.0000
  Ce  Ce16      1.0  0.50000  0.50000  0.51029  1.0000
  O   O25       1.0  0.00000  0.00000  0.57201  1.0000
  O   O26       1.0  0.66667  0.66667  0.53086  1.0000
  O   O27       1.0  0.50000  0.50000  0.57201  1.0000
  O   O28       1.0  0.16667  0.16667  0.53086  1.0000
  O   O29       1.0  0.50000  0.00000  0.57201  1.0000
  O   O30       1.0  0.16667  0.66667  0.53086  1.0000
  O   O31       1.0  0.00000  0.50000  0.57201  1.0000
  O   O32       1.0  0.66667  0.16667  0.53086  1.0000
  Ce  Ce17      1.0  0.66667  0.66667  0.59258  1.0000
  Ce  Ce18      1.0  0.66667  0.16667  0.59258  1.0000
  Ce  Ce19      1.0  0.16667  0.66667  0.59258  1.0000
  Ce  Ce20      1.0  0.16667  0.16667  0.59258  1.0000
  O   O33       1.0  0.66667  0.66667  0.65430  1.0000
  O   O34       1.0  0.33333  0.33333  0.61315  1.0000
  O   O35       1.0  0.16667  0.16667  0.65430  1.0000
  O   O36       1.0  0.83333  0.83333  0.61315  1.0000
  O   O37       1.0  0.16667  0.66667  0.65430  1.0000
  O   O38       1.0  0.83333  0.33333  0.61315  1.0000
  O   O39       1.0  0.66667  0.16667  0.65430  1.0000
  O   O40       1.0  0.33333  0.83333  0.61315  1.0000
  Ce  Ce21      1.0  0.33333  0.33333  0.67487  1.0000
  Ce  Ce22      1.0  0.33333  0.83333  0.67487  1.0000
  Ce  Ce23      1.0  0.83333  0.33333  0.67487  1.0000
  Ce  Ce24      1.0  0.83333  0.83333  0.67487  1.0000
  O   O41       1.0  0.33333  0.33333  0.73659  1.0000
  O   O42       1.0  0.00000  0.00000  0.69545  1.0000
  O   O43       1.0  0.83333  0.83333  0.73659  1.0000
  O   O44       1.0  0.50000  0.50000  0.69545  1.0000
  O   O45       1.0  0.83333  0.33333  0.73659  1.0000
  O   O46       1.0  0.50000  0.00000  0.69545  1.0000
  O   O47       1.0  0.33333  0.83333  0.73659  1.0000
  O   O48       1.0  1.00000  0.50000  0.69545  1.0000
